# generated using pymatgen
data_Lu2Nb4(SbN)3
_symmetry_space_group_name_H-M   'P 1'
_cell_length_a   9.34860039
_cell_length_b   5.39849997
_cell_length_c   13.87380028
_cell_angle_alpha   90.00000000
_cell_angle_beta   103.58699799
_cell_angle_gamma   90.00000000
_symmetry_Int_Tables_number   1
_chemical_formula_structural   Lu2Nb4(SbN)3
_chemical_formula_sum   'Lu8 Nb16 Sb12 N12'
_cell_volume   680.59351619
_cell_formula_units_Z   4
loop_
 _symmetry_equiv_pos_site_id
 _symmetry_equiv_pos_as_xyz
  1  'x, y, z'
loop_
 _atom_site_type_symbol
 _atom_site_label
 _atom_site_symmetry_multiplicity
 _atom_site_fract_x
 _atom_site_fract_y
 _atom_site_fract_z
 _atom_site_occupancy
  Lu  Lu0  1  0.95780999  0.41874999  0.10951000  1
  Lu  Lu1  1  0.04219000  0.58125001  0.89049000  1
  Lu  Lu2  1  0.04219000  0.41874999  0.39048999  1
  Lu  Lu3  1  0.95780999  0.58125001  0.60951000  1
  Lu  Lu4  1  0.45780998  0.91874999  0.10951000  1
  Lu  Lu5  1  0.54219001  0.08125001  0.89049000  1
  Lu  Lu6  1  0.54219001  0.91874999  0.39048999  1
  Lu  Lu7  1  0.45780998  0.08125001  0.60951000  1
  Nb  Nb8  1  0.27241001  0.42159000  0.07920000  1
  Nb  Nb9  1  0.72758996  0.57841003  0.92079997  1
  Nb  Nb10  1  0.72758996  0.42159000  0.42080000  1
  Nb  Nb11  1  0.27241001  0.57841003  0.57920003  1
  Nb  Nb12  1  0.77241004  0.92158997  0.07920000  1
  Nb  Nb13  1  0.22758999  0.07841000  0.92079997  1
  Nb  Nb14  1  0.22758999  0.92158997  0.42080000  1
  Nb  Nb15  1  0.77241004  0.07841000  0.57920003  1
  Nb  Nb16  1  0.61047000  0.40637001  0.07930000  1
  Nb  Nb17  1  0.38953000  0.59362996  0.92070001  1
  Nb  Nb18  1  0.38953000  0.40637001  0.42070001  1
  Nb  Nb19  1  0.61047000  0.59362996  0.57929999  1
  Nb  Nb20  1  0.11047000  0.90637004  0.07930000  1
  Nb  Nb21  1  0.88953000  0.09362999  0.92070001  1
  Nb  Nb22  1  0.88953000  0.90637004  0.42070001  1
  Nb  Nb23  1  0.11047000  0.09362999  0.57929999  1
  Sb  Sb24  1  0.74256003  0.15523000  0.25134999  1
  Sb  Sb25  1  0.25743997  0.84477001  0.74865001  1
  Sb  Sb26  1  0.25743997  0.15523000  0.24865001  1
  Sb  Sb27  1  0.74256003  0.84477001  0.75134999  1
  Sb  Sb28  1  0.24256003  0.65522999  0.25134999  1
  Sb  Sb29  1  0.75743997  0.34477001  0.74865001  1
  Sb  Sb30  1  0.75743997  0.65522999  0.24865001  1
  Sb  Sb31  1  0.24256003  0.34477001  0.75134999  1
  Sb  Sb32  1  0.00000000  0.92878997  0.25000000  1
  Sb  Sb33  1  0.00000000  0.07121000  0.75000000  1
  Sb  Sb34  1  0.50000000  0.42879000  0.25000000  1
  Sb  Sb35  1  0.50000000  0.57121003  0.75000000  1
  N  N36  1  0.41613999  0.25145000  0.00000000  1
  N  N37  1  0.58386004  0.74855000  0.00000000  1
  N  N38  1  0.58386004  0.25145000  0.50000000  1
  N  N39  1  0.41613999  0.74855000  0.50000000  1
  N  N40  1  0.91613996  0.75145000  0.00000000  1
  N  N41  1  0.08386001  0.24855000  0.00000000  1
  N  N42  1  0.08386001  0.75145000  0.50000000  1
  N  N43  1  0.91613996  0.24855000  0.50000000  1
  N  N44  1  0.25000000  0.25000000  0.50000000  1
  N  N45  1  0.75000000  0.75000000  0.50000000  1
  N  N46  1  0.75000000  0.25000000  0.00000000  1
  N  N47  1  0.25000000  0.75000000  0.00000000  1
