# generated using pymatgen
data_Sc4Mo2(AsC)3
_symmetry_space_group_name_H-M   'P 1'
_cell_length_a   9.34860039
_cell_length_b   5.39849997
_cell_length_c   13.87380028
_cell_angle_alpha   90.00000000
_cell_angle_beta   103.58699799
_cell_angle_gamma   90.00000000
_symmetry_Int_Tables_number   1
_chemical_formula_structural   Sc4Mo2(AsC)3
_chemical_formula_sum   'Sc16 Mo8 As12 C12'
_cell_volume   680.59351619
_cell_formula_units_Z   4
loop_
 _symmetry_equiv_pos_site_id
 _symmetry_equiv_pos_as_xyz
  1  'x, y, z'
loop_
 _atom_site_type_symbol
 _atom_site_label
 _atom_site_symmetry_multiplicity
 _atom_site_fract_x
 _atom_site_fract_y
 _atom_site_fract_z
 _atom_site_occupancy
  Mo  Mo0  1  0.95780999  0.41874999  0.10951000  1
  Mo  Mo1  1  0.04219000  0.58125001  0.89049000  1
  Mo  Mo2  1  0.04219000  0.41874999  0.39048999  1
  Mo  Mo3  1  0.95780999  0.58125001  0.60951000  1
  Mo  Mo4  1  0.45780998  0.91874999  0.10951000  1
  Mo  Mo5  1  0.54219001  0.08125001  0.89049000  1
  Mo  Mo6  1  0.54219001  0.91874999  0.39048999  1
  Mo  Mo7  1  0.45780998  0.08125001  0.60951000  1
  Sc  Sc8  1  0.27241001  0.42159000  0.07920000  1
  Sc  Sc9  1  0.72758996  0.57841003  0.92079997  1
  Sc  Sc10  1  0.72758996  0.42159000  0.42080000  1
  Sc  Sc11  1  0.27241001  0.57841003  0.57920003  1
  Sc  Sc12  1  0.77241004  0.92158997  0.07920000  1
  Sc  Sc13  1  0.22758999  0.07841000  0.92079997  1
  Sc  Sc14  1  0.22758999  0.92158997  0.42080000  1
  Sc  Sc15  1  0.77241004  0.07841000  0.57920003  1
  Sc  Sc16  1  0.61047000  0.40637001  0.07930000  1
  Sc  Sc17  1  0.38953000  0.59362996  0.92070001  1
  Sc  Sc18  1  0.38953000  0.40637001  0.42070001  1
  Sc  Sc19  1  0.61047000  0.59362996  0.57929999  1
  Sc  Sc20  1  0.11047000  0.90637004  0.07930000  1
  Sc  Sc21  1  0.88953000  0.09362999  0.92070001  1
  Sc  Sc22  1  0.88953000  0.90637004  0.42070001  1
  Sc  Sc23  1  0.11047000  0.09362999  0.57929999  1
  As  As24  1  0.74256003  0.15523000  0.25134999  1
  As  As25  1  0.25743997  0.84477001  0.74865001  1
  As  As26  1  0.25743997  0.15523000  0.24865001  1
  As  As27  1  0.74256003  0.84477001  0.75134999  1
  As  As28  1  0.24256003  0.65522999  0.25134999  1
  As  As29  1  0.75743997  0.34477001  0.74865001  1
  As  As30  1  0.75743997  0.65522999  0.24865001  1
  As  As31  1  0.24256003  0.34477001  0.75134999  1
  As  As32  1  0.00000000  0.92878997  0.25000000  1
  As  As33  1  0.00000000  0.07121000  0.75000000  1
  As  As34  1  0.50000000  0.42879000  0.25000000  1
  As  As35  1  0.50000000  0.57121003  0.75000000  1
  C  C36  1  0.41613999  0.25145000  0.00000000  1
  C  C37  1  0.58386004  0.74855000  0.00000000  1
  C  C38  1  0.58386004  0.25145000  0.50000000  1
  C  C39  1  0.41613999  0.74855000  0.50000000  1
  C  C40  1  0.91613996  0.75145000  0.00000000  1
  C  C41  1  0.08386001  0.24855000  0.00000000  1
  C  C42  1  0.08386001  0.75145000  0.50000000  1
  C  C43  1  0.91613996  0.24855000  0.50000000  1
  C  C44  1  0.25000000  0.25000000  0.50000000  1
  C  C45  1  0.75000000  0.75000000  0.50000000  1
  C  C46  1  0.75000000  0.25000000  0.00000000  1
  C  C47  1  0.25000000  0.75000000  0.00000000  1
